Test - review
new line....

third line from local repo
